@<TRIPOS>MOLECULE
nin.pdb
   47    52     1     0     0
SMALL
bcc
@<TRIPOS>ATOM
      1 C1         10.0160  -15.8340   25.9040 ca        1 UNK     -0.113300 
      2 N1         11.3370  -16.6150   24.0060 na        1 UNK      0.021400 
      3 O1          6.7510  -15.3200   22.7390 os        1 UNK     -0.314900 
      4 C2          9.4980  -16.6000   27.0400 ca        1 UNK     -0.102000 
      5 N2         13.0110  -16.4650   22.7090 na        1 UNK     -0.359900 
      6 C3          9.5530  -16.0100   28.3530 ca        1 UNK     -0.109000 
      7 N3         10.8510  -15.3140   21.9490 ne        1 UNK     -0.636100 
      8 C4         10.1260  -14.7080   28.3830 ca        1 UNK     -0.014900 
      9 N4         12.2740  -17.2910   24.6340 nc        1 UNK     -0.478800 
     10 C5         10.6280  -13.9280   27.3240 ca        1 UNK     -0.106000 
     11 C6         10.5760  -14.5140   26.0360 ca        1 UNK     -0.105000 
     12 C7          7.5570  -15.2740   23.9390 c3        1 UNK      0.259600 
     13 C8         13.3460  -17.1960   23.8070 cc        1 UNK      0.405400 
     14 C9          9.0140  -15.5700   23.5600 c2        1 UNK     -0.259400 
     15 C10         9.9510  -16.4060   24.5430 c3        1 UNK      0.166500 
     16 C11        11.7460  -16.0910   22.8150 c2        1 UNK      0.231800 
     17 C12         9.4760  -15.1150   22.3550 cf        1 UNK      0.458600 
     18 C13         9.1340  -13.6140   20.3190 ca        1 UNK     -0.058000 
     19 C14         8.1400  -12.9550   19.4880 ca        1 UNK     -0.171000 
     20 C15         6.7380  -13.1050   19.7220 ca        1 UNK     -0.089000 
     21 C16         6.2480  -13.9250   20.8090 ca        1 UNK     -0.158000 
     22 C17         7.2080  -14.5800   21.6480 ca        1 UNK      0.137100 
     23 C18         8.6210  -14.4320   21.4110 ca        1 UNK     -0.188900 
     24 C19         6.2730  -14.1710   25.6790 ca        1 UNK     -0.110000 
     25 C20         7.3350  -13.9900   24.7200 ca        1 UNK     -0.096300 
     26 C21         8.0400  -12.7240   24.5300 ca        1 UNK     -0.108000 
     27 C22         7.6610  -11.5880   25.3260 ca        1 UNK     -0.107000 
     28 C23         6.5900  -11.7940   26.2730 ca        1 UNK     -0.018900 
     29 C24         5.8780  -13.0410   26.4820 ca        1 UNK     -0.106000 
     30 BR1        10.3610  -13.8190   30.0390 br        1 UNK     -0.084100 
     31 BR2         6.0780  -10.4650   27.3190 br        1 UNK     -0.088100 
     32 H01         5.0770  -13.1200   27.2170 ha        1 UNK      0.147000 
     33 H02         9.0800  -17.5960   26.8950 ha        1 UNK      0.142000 
     34 H03         9.1870  -16.5170   29.2460 ha        1 UNK      0.149000 
     35 H05        11.0340  -12.9290   27.4860 ha        1 UNK      0.149000 
     36 H06        10.9510  -13.9780   25.1640 ha        1 UNK      0.144000 
     37 H07         7.2500  -16.0490   24.6410 h1        1 UNK      0.084700 
     38 H10         9.4710  -17.3820   24.6100 h1        1 UNK      0.087700 
     39 H12        10.2030  -13.5030   20.1360 ha        1 UNK      0.154000 
     40 H13         8.4740  -12.3280   18.6620 ha        1 UNK      0.136000 
     41 H14         6.0270  -12.5940   19.0720 ha        1 UNK      0.136000 
     42 H15         5.1790  -14.0410   20.9850 ha        1 UNK      0.153000 
     43 H16         5.7820  -15.1370   25.7940 ha        1 UNK      0.137000 
     44 H17         8.8410  -12.6420   23.7960 ha        1 UNK      0.147000 
     45 H18         8.1560  -10.6230   25.2200 ha        1 UNK      0.147000 
     46 H8         14.3160  -17.6330   23.9920 h5        1 UNK      0.078100 
     47 H2         13.6270  -16.2440   21.9390 hn        1 UNK      0.310700 
@<TRIPOS>BOND
     1    1    4 ar  
     2    1   11 ar  
     3    1   15 1   
     4    2    9 ar  
     5    2   15 1   
     6    2   16 ar  
     7    3   12 1   
     8    3   22 1   
     9    4    6 ar  
    10    4   33 1   
    11    5   13 ar  
    12    5   16 ar  
    13    6    8 ar  
    14    6   34 1   
    15    7   16 1   
    16    7   17 2   
    17    8   10 ar  
    18    8   30 1   
    19    9   13 ar  
    20   10   11 ar  
    21   10   35 1   
    22   11   36 1   
    23   12   14 1   
    24   12   25 1   
    25   12   37 1   
    26   14   15 1   
    27   14   17 2   
    28   15   38 1   
    29   17   23 1   
    30   18   19 ar  
    31   18   23 ar  
    32   18   39 1   
    33   19   20 ar  
    34   19   40 1   
    35   20   21 ar  
    36   20   41 1   
    37   21   22 ar  
    38   21   42 1   
    39   22   23 ar  
    40   24   25 ar  
    41   24   29 ar  
    42   24   43 1   
    43   25   26 ar  
    44   26   27 ar  
    45   26   44 1   
    46   27   28 ar  
    47   27   45 1   
    48   28   29 ar  
    49   28   31 1   
    50   29   32 1   
    51   46   13 1   
    52   47    5 1   
@<TRIPOS>SUBSTRUCTURE
     1 UNK         1 TEMP              0 ****  ****    0 ROOT
