@<TRIPOS>MOLECULE
YIN
   49    35     1     0     0
SMALL
bcc


@<TRIPOS>ATOM
      1 C1         10.0160  -15.8340   25.9040 c1        1 YIN     -0.084000
      2 N1         11.3370  -16.6150   24.0060 n1        1 YIN     -0.170000
      3 O1          6.7510  -15.3200   22.7390 os        1 YIN     -0.196000
      4 C2          9.4980  -16.6000   27.0400 c1        1 YIN     -0.115000
      5 N2         13.0110  -16.4650   22.7090 n1        1 YIN     -0.186000
      6 C3          9.5530  -16.0100   28.3530 c1        1 YIN     -0.107000
      7 N3         10.8510  -15.3140   21.9490 n3        1 YIN     -0.238000
      8 C4         10.1260  -14.7080   28.3830 c1        1 YIN     -0.156000
      9 N4         12.2740  -17.2910   24.6340 n1        1 YIN     -0.076000
     10 C5         10.6280  -13.9280   27.3240 c1        1 YIN     -0.103000
     11 C6         10.5760  -14.5140   26.0360 c1        1 YIN     -0.095000
     12 C7          7.5570  -15.2740   23.9390 c3        1 YIN      0.074000
     13 C8         13.3460  -17.1960   23.8070 c1        1 YIN     -0.151000
     14 C9          9.0140  -15.5700   23.5600 c3        1 YIN     -0.139000
     15 C10         9.9510  -16.4060   24.5430 c2        1 YIN      0.104000
     16 C11        11.7460  -16.0910   22.8150 c2        1 YIN      0.054000
     17 C12         9.4760  -15.1150   22.3550 c3        1 YIN      0.059000
     18 C13         9.1340  -13.6140   20.3190 c1        1 YIN     -0.096000
     19 C14         8.1400  -12.9550   19.4880 c1        1 YIN     -0.150000
     20 C15         6.7380  -13.1050   19.7220 c1        1 YIN     -0.096000
     21 C16         6.2480  -13.9250   20.8090 c1        1 YIN     -0.141000
     22 C17         7.2080  -14.5800   21.6480 c1        1 YIN      0.090000
     23 C18         8.6210  -14.4320   21.4110 c1        1 YIN     -0.144000
     24 C19         6.2730  -14.1710   25.6790 c1        1 YIN     -0.104000
     25 C20         7.3350  -13.9900   24.7200 c1        1 YIN     -0.101000
     26 C21         8.0400  -12.7240   24.5300 c1        1 YIN     -0.113000
     27 C22         7.6610  -11.5880   25.3260 c1        1 YIN     -0.105000
     28 C23         6.5900  -11.7940   26.2730 c1        1 YIN     -0.156000
     29 C24         5.8780  -13.0410   26.4820 c1        1 YIN     -0.106000
     30 BR1        10.3610  -13.8190   30.0390 br        1 YIN      0.060000
     31 BR2         6.0780  -10.4650   27.3190 br        1 YIN      0.060000
     32 H01         5.0770  -13.1200   27.2170 ha        1 YIN      0.151000
     33 H02         9.0800  -17.5960   26.8950 ha        1 YIN      0.144000
     34 H03         9.1870  -16.5170   29.2460 ha        1 YIN      0.151000
     35 H04        11.1900  -14.9230   21.0810 hn        1 YIN      0.224000
     36 H05        11.0340  -12.9290   27.4860 ha        1 YIN      0.152000
     37 H06        10.9510  -13.9780   25.1640 ha        1 YIN      0.145000
     38 H07         7.2500  -16.0490   24.6410 h1        1 YIN      0.136000
     39 H08        14.3250  -17.6370   23.9940 ha        1 YIN      0.207000
     40 H09         9.9050  -15.6140   24.1860 hc        1 YIN      0.119000
     41 H10         9.4710  -17.3820   24.6100 ha        1 YIN      0.128000
     42 H11         9.0800  -15.1650   23.3690 h1        1 YIN      0.078000
     43 H12        10.2030  -13.5030   20.1360 ha        1 YIN      0.131000
     44 H13         8.4740  -12.3280   18.6620 ha        1 YIN      0.138000
     45 H14         6.0270  -12.5940   19.0720 ha        1 YIN      0.139000
     46 H15         5.1790  -14.0410   20.9850 ha        1 YIN      0.154000
     47 H16         5.7820  -15.1370   25.7940 ha        1 YIN      0.143000
     48 H17         8.8410  -12.6420   23.7960 ha        1 YIN      0.141000
     49 H18         8.1560  -10.6230   25.2200 ha        1 YIN      0.150000
@<TRIPOS>BOND
     1    1   15 1   
     2    2   16 1   
     3    3   12 1   
     4    3   22 1   
     5    4   33 1   
     6    5   16 1   
     7    6   34 1   
     8    7   16 1   
     9    7   17 1   
    10    7   35 1   
    11    8   30 1   
    12    9   13 1   
    13   10   36 1   
    14   11   37 1   
    15   12   14 1   
    16   12   25 1   
    17   12   38 1   
    18   13   39 1   
    19   14   15 1   
    20   14   17 1   
    21   14   40 1   
    22   15   41 1   
    23   17   23 1   
    24   17   42 1   
    25   18   43 1   
    26   19   44 1   
    27   20   45 1   
    28   21   46 1   
    29   22   23 1   
    30   24   47 1   
    31   25   26 1   
    32   26   48 1   
    33   27   49 1   
    34   28   31 1   
    35   29   32 1   
@<TRIPOS>SUBSTRUCTURE
     1 YIN         1 TEMP              0 ****  ****    0 ROOT
