@<TRIPOS>MOLECULE
NUT
   70    74     1     0     0
SMALL
bcc


@<TRIPOS>ATOM
      1 O3          7.9740   27.2330   34.4680 o       201 NUT     -0.356000
      2 C25         8.0030   26.7450   35.6050 c2      201 NUT      0.392000
      3 N2          7.7840   27.4960   36.7240 n       201 NUT     -0.284000
      4 C29         7.0940   28.7840   36.5830 c3      201 NUT     -0.062000
      5 C28         8.0740   29.8910   36.8040 c2      201 NUT      0.282000
      6 O2          8.1960   30.8610   36.0510 o       201 NUT     -0.359000
      7 N3          8.8410   29.7670   37.8890 n       201 NUT     -0.385000
      8 C27         8.6910   28.5980   38.7800 c3      201 NUT     -0.046000
      9 C26         8.5940   27.2970   37.9560 c3      201 NUT     -0.045000
     10 N1          8.3720   25.3900   35.7790 n       201 NUT     -0.305000
     11 C10         8.1970   24.5780   36.9140 c2      201 NUT      0.137000
     12 C9          7.1070   24.7980   37.8810 ca      201 NUT     -0.109000
     13 C3          7.3190   24.5280   39.2500 ca      201 NUT     -0.039000
     14 C2          6.3090   24.7440   40.1850 ca      201 NUT     -0.242000
     15 C5          5.8240   25.2650   37.4780 ca      201 NUT      0.167000
     16 O1          5.5800   25.4340   36.1700 os      201 NUT     -0.211000
     17 C6          4.3130   26.0090   35.8240 c3      201 NUT      0.031000
     18 C8          4.4280   26.7620   34.4950 c3      201 NUT     -0.228000
     19 C7          3.2260   24.9320   35.7160 c3      201 NUT     -0.235000
     20 C4          4.8050   25.5130   38.4030 ca      201 NUT     -0.230000
     21 C1          5.0630   25.2340   39.7460 ca      201 NUT      0.130000
     22 O           4.0870   25.4200   40.6480 os      201 NUT     -0.207000
     23 C           4.4110   25.0410   41.9830 c3      201 NUT     -0.077000
     24 C18         9.3620   24.7990   34.8830 c3      201 NUT      0.022000
     25 C19         8.6530   24.1230   33.7240 ca      201 NUT     -0.098000
     26 C24         7.2780   23.8420   33.8210 ca      201 NUT     -0.098000
     27 C23         6.6180   23.1770   32.7980 ca      201 NUT     -0.120000
     28 C22         7.3510   22.7790   31.6470 ca      201 NUT     -0.052000
     29 CL1         6.5860   21.9100   30.4430 cl      201 NUT     -0.012000
     30 C21         8.7260   23.1060   31.5160 ca      201 NUT     -0.128000
     31 C20         9.3600   23.7730   32.5570 ca      201 NUT     -0.108000
     32 C11        10.0410   23.7850   35.8420 c3      201 NUT     -0.022000
     33 N           9.1040   23.6340   36.9600 n2      201 NUT     -0.159000
     34 C12        10.4210   22.4690   35.2130 ca      201 NUT     -0.064000
     35 C17        11.7680   22.2420   34.8740 ca      201 NUT     -0.113000
     36 C16        12.1540   21.0710   34.2600 ca      201 NUT     -0.127000
     37 C15        11.1720   20.0950   33.9660 ca      201 NUT     -0.055000
     38 CL         11.6110   18.7210   33.1300 cl      201 NUT     -0.018000
     39 C14         9.8190   20.2830   34.3560 ca      201 NUT     -0.129000
     40 C13         9.4600   21.4720   34.9750 ca      201 NUT     -0.093000
     41 H292        6.6730   28.8640   35.5810 h1      201 NUT      0.126000
     42 H293        6.2950   28.8520   37.3210 h1      201 NUT      0.164000
     43 HN3         9.5280   30.4760   38.1020 hn      201 NUT      0.238000
     44 H272        9.5550   28.5390   39.4420 h1      201 NUT      0.092000
     45 H273        7.7870   28.7140   39.3770 h1      201 NUT      0.078000
     46 H262        9.5980   26.9800   37.6730 h1      201 NUT      0.103000
     47 H263        8.1320   26.5210   38.5660 h1      201 NUT      0.120000
     48 H3          8.2760   24.1490   39.5770 ha      201 NUT      0.138000
     49 H2          6.4790   24.5390   41.2320 ha      201 NUT      0.141000
     50 H6          4.0270   26.7170   36.6020 h1      201 NUT      0.100000
     51 H81         5.2010   27.5260   34.5760 hc      201 NUT      0.106000
     52 H82         3.4740   27.2340   34.2610 hc      201 NUT      0.083000
     53 H83         4.6910   26.0620   33.7020 hc      201 NUT      0.082000
     54 H71         3.1470   24.3980   36.6630 hc      201 NUT      0.083000
     55 H72         2.2710   25.4020   35.4840 hc      201 NUT      0.084000
     56 H73         3.4870   24.2300   34.9240 hc      201 NUT      0.093000
     57 H4          3.8500   25.9070   38.0890 ha      201 NUT      0.161000
     58 H1          3.5490   25.2100   42.6290 h1      201 NUT      0.109000
     59 H5          5.2520   25.6380   42.3360 h1      201 NUT      0.075000
     60 H7          4.6800   23.9850   42.0060 h1      201 NUT      0.075000
     61 H18        10.0720   25.5470   34.5300 h1      201 NUT      0.106000
     62 H24         6.7310   24.1470   34.7010 ha      201 NUT      0.159000
     63 H23         5.5620   22.9650   32.8750 ha      201 NUT      0.152000
     64 H21         9.2700   22.8410   30.6220 ha      201 NUT      0.148000
     65 H20        10.4060   24.0260   32.4700 ha      201 NUT      0.132000
     66 H11        10.9500   24.2460   36.2280 h1      201 NUT      0.120000
     67 H17        12.5080   22.9960   35.0980 ha      201 NUT      0.132000
     68 H16        13.1900   20.9000   34.0070 ha      201 NUT      0.146000
     69 H14         9.0830   19.5140   34.1740 ha      201 NUT      0.147000
     70 H13         8.4350   21.6320   35.2760 ha      201 NUT      0.159000
@<TRIPOS>BOND
     1    1    2 1   
     2    2    3 1   
     3    2   10 1   
     4    3    4 1   
     5    3    9 1   
     6    4    5 1   
     7    4   41 1   
     8    4   42 1   
     9    5    6 1   
    10    5    7 1   
    11    7    8 1   
    12    7   43 1   
    13    8    9 1   
    14    8   44 1   
    15    8   45 1   
    16    9   46 1   
    17    9   47 1   
    18   10   11 1   
    19   10   24 1   
    20   11   12 1   
    21   11   33 1   
    22   12   13 1   
    23   12   15 1   
    24   13   14 1   
    25   13   48 1   
    26   14   21 1   
    27   14   49 1   
    28   15   16 1   
    29   15   20 1   
    30   16   17 1   
    31   17   18 1   
    32   17   19 1   
    33   17   50 1   
    34   18   51 1   
    35   18   52 1   
    36   18   53 1   
    37   19   54 1   
    38   19   55 1   
    39   19   56 1   
    40   20   21 1   
    41   20   57 1   
    42   21   22 1   
    43   22   23 1   
    44   23   58 1   
    45   23   59 1   
    46   23   60 1   
    47   24   25 1   
    48   24   32 1   
    49   24   61 1   
    50   25   26 1   
    51   25   31 1   
    52   26   27 1   
    53   26   62 1   
    54   27   28 1   
    55   27   63 1   
    56   28   29 1   
    57   28   30 1   
    58   30   31 1   
    59   30   64 1   
    60   31   65 1   
    61   32   33 1   
    62   32   34 1   
    63   32   66 1   
    64   34   35 1   
    65   34   40 1   
    66   35   36 1   
    67   35   67 1   
    68   36   37 1   
    69   36   68 1   
    70   37   38 1   
    71   37   39 1   
    72   39   40 1   
    73   39   69 1   
    74   40   70 1   
@<TRIPOS>SUBSTRUCTURE
     1 NUT         1 TEMP              0 ****  ****    0 ROOT
