@<TRIPOS>MOLECULE
I18
   72    60     1     0     0
SMALL
bcc


@<TRIPOS>ATOM
      1 CL4       -10.4300  -15.7610   -0.4980 cl      201 I18     -0.012000
      2 CL5       -14.9460  -12.2010   -3.3550 cl      201 I18     -0.014000
      3 N1        -13.7500   -9.5080    2.6330 n3      201 I18     -0.311000
      4 C2        -13.4820  -10.2540    3.7620 c3      201 I18      0.020000
      5 N3        -12.3850  -10.9090    3.7230 n3      201 I18     -0.277000
      6 C4        -11.7030  -10.6570    2.4540 c3      201 I18     -0.010000
      7 C5        -12.6710   -9.7260    1.6670 c3      201 I18     -0.007000
      8 C21       -14.4600  -10.2400    4.9030 c3      201 I18     -0.223000
      9 C41       -11.3800  -11.9480    1.7480 c1      201 I18     -0.084000
     10 C42       -10.1830  -12.0660    1.0400 c1      201 I18     -0.108000
     11 C43        -9.8730  -13.2490    0.3820 c1      201 I18     -0.124000
     12 C44       -10.7720  -14.3140    0.4220 c1      201 I18     -0.056000
     13 C45       -11.9520  -14.2220    1.1630 c1      201 I18     -0.121000
     14 C46       -12.2560  -13.0350    1.8230 c1      201 I18     -0.111000
     15 C51       -13.2230  -10.3460    0.4060 c1      201 I18     -0.067000
     16 C52       -12.5080  -10.2730   -0.7950 c1      201 I18     -0.119000
     17 C53       -13.0440  -10.8190   -1.9610 c1      201 I18     -0.122000
     18 C54       -14.2910  -11.4520   -1.9160 c1      201 I18     -0.058000
     19 C55       -15.0140  -11.5130   -0.7240 c1      201 I18     -0.126000
     20 C56       -14.4750  -10.9650    0.4350 c1      201 I18     -0.106000
     21 H01       -15.0320  -11.0190    1.3700 ha      201 I18      0.146000
     22 H02       -13.8000   -8.5290    2.8750 hn      201 I18      0.177000
     23 H03       -13.6280  -10.6720    4.7580 h2      201 I18      0.096000
     24 H04       -12.5800  -11.8960    3.8100 hn      201 I18      0.161000
     25 H05       -10.7310  -10.1770    2.5720 h1      201 I18      0.112000
     26 H06       -12.1670   -8.8240    1.3210 h1      201 I18      0.092000
     27 H07       -14.6180   -9.2140    5.2340 hc      201 I18      0.086000
     28 H08        -9.4890  -11.2260    1.0030 ha      201 I18      0.138000
     29 H09        -8.9330  -13.3440   -0.1620 ha      201 I18      0.149000
     30 H10       -12.6300  -15.0730    1.2240 ha      201 I18      0.149000
     31 H11       -13.1780  -12.9530    2.3990 ha      201 I18      0.137000
     32 H12       -11.5320   -9.7890   -0.8190 ha      201 I18      0.135000
     33 H13       -12.4950  -10.7530   -2.9010 ha      201 I18      0.148000
     34 H14       -15.9950  -11.9870   -0.7010 ha      201 I18      0.149000
     35 H15       -14.0650  -10.8320    5.7290 hc      201 I18      0.084000
     36 H16       -15.4080  -10.6650    4.5730 hc      201 I18      0.079000
     37 CL4       -18.2760    0.8750    7.5700 cl      202 I18     -0.014000
     38 CL5       -21.5450   -5.1030    5.6500 cl      202 I18     -0.020000
     39 N1        -15.1210   -4.7620    3.4920 n3      202 I18     -0.290000
     40 C2        -14.1000   -3.8260    3.4200 c3      202 I18      0.021000
     41 N3        -13.8730   -3.1870    4.5220 n3      202 I18     -0.290000
     42 C4        -14.7850   -3.6670    5.5710 c3      202 I18     -0.011000
     43 C5        -15.5520   -4.8450    4.8860 c3      202 I18     -0.002000
     44 C21       -13.3940   -3.6040    2.1170 c3      202 I18     -0.223000
     45 C41       -15.6820   -2.5360    6.0750 c1      202 I18     -0.083000
     46 C42       -16.5630   -2.7410    7.1490 c1      202 I18     -0.110000
     47 C43       -17.3610   -1.6970    7.6110 c1      202 I18     -0.124000
     48 C44       -17.2770   -0.4430    6.9980 c1      202 I18     -0.057000
     49 C45       -16.3990   -0.2270    5.9350 c1      202 I18     -0.120000
     50 C46       -15.6050   -1.2710    5.4810 c1      202 I18     -0.111000
     51 C51       -17.0580   -4.8530    5.0770 c1      202 I18     -0.060000
     52 C52       -17.6060   -5.7500    5.9910 c1      202 I18     -0.120000
     53 C53       -18.9750   -5.8160    6.1730 c1      202 I18     -0.125000
     54 C54       -19.8080   -4.9800    5.4370 c1      202 I18     -0.059000
     55 C55       -19.2750   -4.0570    4.5280 c1      202 I18     -0.130000
     56 C56       -17.8950   -3.9990    4.3500 c1      202 I18     -0.093000
     57 H01       -17.4660   -3.2880    3.6440 ha      202 I18      0.149000
     58 H02       -14.7850   -5.6620    3.1810 hn      202 I18      0.179000
     59 H03       -13.1360   -3.4720    3.0540 h2      202 I18      0.092000
     60 H04       -14.0210   -2.1990    4.3740 hn      202 I18      0.162000
     61 H05       -14.2820   -4.0110    6.4750 h1      202 I18      0.102000
     62 H06       -15.3070   -5.8010    5.3490 h1      202 I18      0.093000
     63 H07       -13.3300   -2.5350    1.9150 hc      202 I18      0.076000
     64 H08       -16.6230   -3.7210    7.6230 ha      202 I18      0.136000
     65 H09       -18.0460   -1.8560    8.4440 ha      202 I18      0.148000
     66 H10       -16.3370    0.7540    5.4650 ha      202 I18      0.149000
     67 H11       -14.9150   -1.1040    4.6540 ha      202 I18      0.139000
     68 H12       -16.9510   -6.4040    6.5670 ha      202 I18      0.131000
     69 H13       -19.3990   -6.5190    6.8890 ha      202 I18      0.145000
     70 H14       -19.9320   -3.3930    3.9670 ha      202 I18      0.145000
     71 H15       -13.9470   -4.0930    1.3150 hc      202 I18      0.096000
     72 H16       -12.3890   -4.0230    2.1730 hc      202 I18      0.077000
@<TRIPOS>BOND
     1    1   12 1   
     2    2   18 1   
     3    3    4 1   
     4    3    7 1   
     5    3   22 1   
     6    4    5 1   
     7    4    8 1   
     8    4   23 1   
     9    5    6 1   
    10    5   24 1   
    11    6    7 1   
    12    6    9 1   
    13    6   25 1   
    14    7   15 1   
    15    7   26 1   
    16    8   27 1   
    17    8   35 1   
    18    8   36 1   
    19    9   14 1   
    20   10   28 1   
    21   11   29 1   
    22   12   13 1   
    23   13   30 1   
    24   14   31 1   
    25   15   20 1   
    26   16   32 1   
    27   17   33 1   
    28   18   19 1   
    29   19   34 1   
    30   20   21 1   
    31   37   48 1   
    32   38   54 1   
    33   39   40 1   
    34   39   43 1   
    35   39   58 1   
    36   40   41 1   
    37   40   44 1   
    38   40   59 1   
    39   41   42 1   
    40   41   60 1   
    41   42   43 1   
    42   42   45 1   
    43   42   61 1   
    44   43   51 1   
    45   43   62 1   
    46   44   63 1   
    47   44   71 1   
    48   44   72 1   
    49   45   50 1   
    50   46   64 1   
    51   47   65 1   
    52   48   49 1   
    53   49   66 1   
    54   50   67 1   
    55   51   56 1   
    56   52   68 1   
    57   53   69 1   
    58   54   55 1   
    59   55   70 1   
    60   56   57 1   
@<TRIPOS>SUBSTRUCTURE
     1 I18         1 TEMP              0 ****  ****    0 ROOT
