@<TRIPOS>MOLECULE
I31
   68    58     1     0     0
SMALL
bcc


@<TRIPOS>ATOM
      1 CL4        -3.3300   -2.9320   -0.8420 cl      201 I31     -0.003000
      2 CL5        -8.8080    0.8030   -0.3710 cl      201 I31     -0.006000
      3 N1         -3.6590    5.0320   -0.0450 n3      201 I31     -0.291000
      4 C2         -2.9390    4.6290    1.0710 c3      201 I31      0.210000
      5 N3         -2.3950    3.4760    0.9400 n3      201 I31     -0.287000
      6 C4         -2.4760    3.0490   -0.4440 c3      201 I31      0.103000
      7 C5         -3.6580    3.9110   -0.9980 c3      201 I31      0.088000
      8 C21        -2.8130    5.4880    2.2450 c1      201 I31      0.124000
      9 C22        -1.6540    5.4150    3.0170 c1      201 I31     -0.389000
     10 C23        -1.4880    6.2330    4.1250 c1      201 I31     -0.008000
     11 C24        -2.4820    7.1360    4.4860 c1      201 I31     -0.278000
     12 C25        -3.6660    7.2240    3.7220 c1      201 I31      0.001000
     13 C26        -3.8120    6.3860    2.6090 c1      201 I31     -0.263000
     14 O27        -4.9660    6.4250    1.8320 os      201 I31     -0.254000
     15 C28        -5.9840    7.2990    2.2980 c3      201 I31     -0.027000
     16 C29        -7.1880    7.2400    1.3440 c3      201 I31     -0.216000
     17 C30        -2.2720    7.9980    5.7110 c3      201 I31      0.020000
     18 C31        -3.4670    8.9340    5.9050 c3      201 I31     -0.199000
     19 C32        -2.1300    7.0920    6.9410 c3      201 I31     -0.199000
     20 C33        -0.9920    8.8310    5.5510 c3      201 I31     -0.198000
     21 C41        -2.6900    1.5520   -0.5410 c1      201 I31     -0.098000
     22 C42        -2.0930    0.8250   -1.5810 c1      201 I31     -0.108000
     23 C43        -2.2740   -0.5550   -1.6660 c1      201 I31     -0.128000
     24 C44        -3.0610   -1.2050   -0.7160 c1      201 I31     -0.049000
     25 C45        -3.6470   -0.4900    0.3280 c1      201 I31     -0.123000
     26 C46        -3.4610    0.8860    0.4140 c1      201 I31     -0.096000
     27 C47        -1.1680    3.4380   -1.1490 c3      201 I31     -0.226000
     28 C51        -4.9880    3.1850   -0.8960 c1      201 I31     -0.079000
     29 C52        -5.3940    2.2870   -1.8890 c1      201 I31     -0.109000
     30 C53        -6.5820    1.5720   -1.7410 c1      201 I31     -0.122000
     31 C54        -7.3620    1.7580   -0.5970 c1      201 I31     -0.054000
     32 C55        -6.9910    2.6890    0.3690 c1      201 I31     -0.125000
     33 C56        -5.8050    3.4010    0.2150 c1      201 I31     -0.102000
     34 C57        -3.3860    4.3980   -2.4300 c3      201 I31     -0.233000
     35 H01        -3.5910    5.4670   -2.4960 hc      201 I31      0.100000
     36 H02        -3.2240    5.8420   -0.4630 hn      201 I31      0.283000
     37 H03        -2.8560    4.8470    2.1360 h2      201 I31      0.084000
     38 H04        -2.8760    2.8090    1.5260 hn      201 I31      0.288000
     39 H05        -0.8700    4.7080    2.7470 ha      201 I31      0.109000
     40 H06        -0.5740    6.1680    4.7150 ha      201 I31      0.106000
     41 H07        -4.4510    7.9300    3.9930 ha      201 I31      0.120000
     42 H08        -5.5990    8.3180    2.3360 h1      201 I31      0.076000
     43 H09        -7.5380    6.2110    1.2630 hc      201 I31      0.069000
     44 H10        -3.7370    9.3830    4.9490 hc      201 I31      0.069000
     45 H11        -1.6970    6.1380    6.6420 hc      201 I31      0.068000
     46 H12        -0.7010    9.2410    6.5180 hc      201 I31      0.060000
     47 H13        -1.4860    1.3400   -2.3250 ha      201 I31      0.139000
     48 H14        -1.8040   -1.1220   -2.4690 ha      201 I31      0.151000
     49 H15        -4.2490   -1.0080    1.0750 ha      201 I31      0.154000
     50 H16        -3.9190    1.4460    1.2290 ha      201 I31      0.146000
     51 H17        -0.9130    4.4680   -0.9010 hc      201 I31      0.106000
     52 H18        -4.7810    2.1460   -2.7790 ha      201 I31      0.135000
     53 H19        -6.9000    0.8720   -2.5130 ha      201 I31      0.151000
     54 H20        -7.6250    2.8590    1.2400 ha      201 I31      0.152000
     55 H21        -5.5120    4.1330    0.9680 ha      201 I31      0.147000
     56 H22        -4.0300    3.8600   -3.1260 hc      201 I31      0.094000
     57 H23        -6.2970    6.9920    3.2960 h1      201 I31      0.064000
     58 H24        -6.8910    7.6020    0.3600 hc      201 I31      0.082000
     59 H25        -3.2030    9.7190    6.6140 hc      201 I31      0.062000
     60 H26        -3.1120    6.9230    7.3840 hc      201 I31      0.075000
     61 H27        -1.1730    9.6460    4.8500 hc      201 I31      0.065000
     62 H28        -1.2940    3.3440   -2.2280 hc      201 I31      0.092000
     63 H29        -2.3420    4.2120   -2.6840 hc      201 I31      0.104000
     64 H30        -7.9910    7.8660    1.7340 hc      201 I31      0.077000
     65 H31        -4.3140    8.3660    6.2910 hc      201 I31      0.072000
     66 H32        -1.4800    7.5720    7.6720 hc      201 I31      0.058000
     67 H33        -0.1910    8.1970    5.1710 hc      201 I31      0.066000
     68 H34        -0.3670    2.7760   -0.8190 hc      201 I31      0.095000
@<TRIPOS>BOND
     1    1   24 1   
     2    2   31 1   
     3    3    4 1   
     4    3    7 1   
     5    3   36 1   
     6    4    5 1   
     7    4    8 1   
     8    4   37 1   
     9    5    6 1   
    10    5   38 1   
    11    6    7 1   
    12    6   21 1   
    13    6   27 1   
    14    7   28 1   
    15    7   34 1   
    16    8   13 1   
    17    9   39 1   
    18   10   40 1   
    19   11   17 1   
    20   12   41 1   
    21   13   14 1   
    22   14   15 1   
    23   15   16 1   
    24   15   42 1   
    25   15   57 1   
    26   16   43 1   
    27   16   58 1   
    28   16   64 1   
    29   17   18 1   
    30   17   19 1   
    31   17   20 1   
    32   18   44 1   
    33   18   59 1   
    34   18   65 1   
    35   19   45 1   
    36   19   60 1   
    37   19   66 1   
    38   20   46 1   
    39   20   61 1   
    40   20   67 1   
    41   21   26 1   
    42   22   47 1   
    43   23   48 1   
    44   24   25 1   
    45   25   49 1   
    46   26   50 1   
    47   27   51 1   
    48   27   62 1   
    49   27   68 1   
    50   28   33 1   
    51   29   52 1   
    52   30   53 1   
    53   31   32 1   
    54   32   54 1   
    55   33   55 1   
    56   34   35 1   
    57   34   56 1   
    58   34   63 1   
@<TRIPOS>SUBSTRUCTURE
     1 I31         1 TEMP              0 ****  ****    0 ROOT
