@<TRIPOS>MOLECULE
20Q
   50    42     1     0     0
SMALL
bcc


@<TRIPOS>ATOM
      1 CL1        10.4740   15.3250   33.3190 cl      201 20Q     -0.016000
      2 CL6        14.8350   12.0590   30.2780 cl      201 20Q     -0.006000
      3 N1         11.7850    9.4000   33.4340 n3      201 20Q     -0.322000
      4 C2         11.7150    9.2850   34.8110 c1      201 20Q      0.307000
      5 O2         10.8480    8.6190   35.3930 os      201 20Q     -0.338000
      6 C3         12.8530   10.0930   35.4400 c3      201 20Q      0.001000
      7 C4         14.7540   11.2410   34.1360 c1      201 20Q     -0.068000
      8 C5         15.1970   11.6650   32.8860 c1      201 20Q     -0.154000
      9 C6         14.4080   11.3690   31.7200 c1      201 20Q     -0.024000
     10 C7         13.2550   10.5380   31.8010 c1      201 20Q     -0.161000
     11 C8         13.5740   10.5250   34.2060 c1      201 20Q     -0.128000
     12 C9         12.9010   10.1710   33.0750 c1      201 20Q      0.075000
     13 C10        12.3350   11.3450   36.2040 c3      201 20Q     -0.109000
     14 C11        11.2080   12.0430   35.4630 c1      201 20Q     -0.073000
     15 C12        11.4200   13.2570   34.7980 c1      201 20Q     -0.114000
     16 C13        10.3080   13.8660   34.1220 c1      201 20Q     -0.060000
     17 C14         9.0410   13.2460   34.1240 c1      201 20Q     -0.121000
     18 C15         8.8720   12.0570   34.7940 c1      201 20Q     -0.119000
     19 C16         9.9380   11.4520   35.4620 c1      201 20Q     -0.128000
     20 C31        13.7480    9.2100   36.3320 c3      201 20Q     -0.117000
     21 C32        12.9170    8.2860   37.2260 c3      201 20Q     -0.041000
     22 C33        13.8650    6.1530   37.9650 c1      201 20Q      0.296000
     23 N33        13.8110    7.4840   38.0820 n2      201 20Q     -0.315000
     24 O33        14.7410    5.5120   38.5590 os      201 20Q     -0.366000
     25 C34        14.8060    8.2080   38.8910 c3      201 20Q     -0.042000
     26 C35        15.6240    9.1570   38.0020 c3      201 20Q     -0.183000
     27 C36        14.6950   10.0620   37.1830 c3      201 20Q     -0.156000
     28 C37        12.8200    5.5170   37.0910 c3      201 20Q     -0.239000
     29 H01        12.5100    4.5670   37.5270 hc      201 20Q      0.114000
     30 H02        11.1300    8.9900   32.7840 hn      201 20Q      0.256000
     31 H03        15.3240   11.4680   35.0370 ha      201 20Q      0.143000
     32 H04        16.1330   12.2160   32.7920 ha      201 20Q      0.153000
     33 H05        12.6970   10.2180   30.9210 ha      201 20Q      0.157000
     34 H06        13.1600   12.0460   36.3310 hc      201 20Q      0.102000
     35 H07        12.4030   13.7280   34.7930 ha      201 20Q      0.144000
     36 H08         8.2030   13.7050   33.5990 ha      201 20Q      0.149000
     37 H09         7.8920   11.5800   34.8040 ha      201 20Q      0.140000
     38 H10         9.7810   10.5100   35.9880 ha      201 20Q      0.150000
     39 H11        14.3470    8.5870   35.6670 hc      201 20Q      0.106000
     40 H12        12.3180    7.6210   36.6030 h1      201 20Q      0.124000
     41 H13        15.4760    7.4910   39.3650 h1      201 20Q      0.129000
     42 H14        16.2430    8.5700   37.3240 hc      201 20Q      0.093000
     43 H15        14.1110   10.6860   37.8590 hc      201 20Q      0.080000
     44 H16        13.2330    5.3440   36.0970 hc      201 20Q      0.104000
     45 H17        11.9470   11.0130   37.1670 hc      201 20Q      0.113000
     46 H18        12.2610    8.8880   37.8550 h1      201 20Q      0.090000
     47 H19        14.2880    8.7920   39.6520 h1      201 20Q      0.083000
     48 H20        16.2520    9.7810   38.6380 hc      201 20Q      0.093000
     49 H21        15.2970   10.6910   36.5270 hc      201 20Q      0.091000
     50 H22        11.9580    6.1800   37.0150 hc      201 20Q      0.106000
@<TRIPOS>BOND
     1    1   16 1   
     2    2    9 1   
     3    3    4 1   
     4    3   12 1   
     5    3   30 1   
     6    4    6 1   
     7    6   11 1   
     8    6   13 1   
     9    6   20 1   
    10    7   31 1   
    11    8   32 1   
    12    9   10 1   
    13   10   33 1   
    14   11   12 1   
    15   13   14 1   
    16   13   34 1   
    17   13   45 1   
    18   14   19 1   
    19   15   35 1   
    20   16   17 1   
    21   17   36 1   
    22   18   37 1   
    23   19   38 1   
    24   20   21 1   
    25   20   27 1   
    26   20   39 1   
    27   21   23 1   
    28   21   40 1   
    29   21   46 1   
    30   22   28 1   
    31   23   25 1   
    32   25   26 1   
    33   25   41 1   
    34   25   47 1   
    35   26   27 1   
    36   26   42 1   
    37   26   48 1   
    38   27   43 1   
    39   27   49 1   
    40   28   29 1   
    41   28   44 1   
    42   28   50 1   
@<TRIPOS>SUBSTRUCTURE
     1 20Q         1 TEMP              0 ****  ****    0 ROOT
