@<TRIPOS>MOLECULE
20U
   69    58     1     0     0
SMALL
bcc


@<TRIPOS>ATOM
      1 CL1       -14.1980   13.0930   -4.3660 cl      201 20U     -0.003000
      2 CL2        -9.3710   16.9260   -1.1060 cl      201 20U      0.012000
      3 N1        -11.0550   16.1890   -7.0660 n3      201 20U     -0.335000
      4 C2        -10.8610   17.5860   -7.1290 c1      201 20U      0.330000
      5 O2         -9.9720   18.1210   -7.7990 os      201 20U     -0.309000
      6 C3        -11.9150   18.2710   -6.2580 c3      201 20U     -0.022000
      7 C4        -13.6240   17.0680   -4.7240 c1      201 20U     -0.065000
      8 C5        -14.1370   15.8140   -4.3250 c1      201 20U     -0.157000
      9 C6        -13.5920   14.6220   -4.8820 c1      201 20U     -0.018000
     10 C7        -12.5700   14.6740   -5.8260 c1      201 20U     -0.165000
     11 C8        -12.6070   17.0740   -5.6520 c1      201 20U     -0.146000
     12 C9        -12.1140   15.9180   -6.1530 c1      201 20U      0.090000
     13 C11       -12.8130   19.1320   -7.1200 c3      201 20U      0.001000
     14 N12       -12.0070   20.3630   -7.3510 n3      201 20U     -0.293000
     15 C13       -11.0980   20.5270   -6.1510 c3      201 20U     -0.042000
     16 C14       -11.3300   19.2880   -5.2770 c3      201 20U     -0.046000
     17 C21       -13.1900   18.4480   -8.4430 c3      201 20U     -0.151000
     18 C22       -14.5360   18.9810   -8.9790 c3      201 20U     -0.054000
     19 C23       -14.7640   18.4580  -10.4020 c3      201 20U     -0.206000
     20 C24       -15.6690   18.4900   -8.0730 c3      201 20U     -0.207000
     21 C25       -14.5260   20.5120   -8.9950 c3      201 20U     -0.206000
     22 C31       -10.0830   18.8260   -4.5560 c1      201 20U     -0.118000
     23 C32       -10.1990   18.1890   -3.3500 c1      201 20U      0.111000
     24 C33        -9.1220   17.7630   -2.6160 c1      201 20U     -0.105000
     25 C34        -7.8370   17.9980   -3.0890 c1      201 20U     -0.093000
     26 C35        -7.6740   18.6450   -4.3290 c1      201 20U     -0.135000
     27 C36        -8.8040   19.0600   -5.0700 c1      201 20U     -0.082000
     28 C41       -11.4600   21.7870   -5.4380 c1      201 20U      0.277000
     29 O41       -10.9930   22.1210   -4.3480 os      201 20U     -0.320000
     30 N42       -12.4050   22.5830   -6.1210 n3      201 20U     -0.330000
     31 C43       -12.8330   23.9080   -5.7570 c1      201 20U      0.096000
     32 C44       -13.6690   24.5610   -6.6520 c1      201 20U     -0.200000
     33 C45       -14.0610   25.8580   -6.3930 c1      201 20U     -0.074000
     34 C46       -13.6210   26.5060   -5.2370 c1      201 20U     -0.150000
     35 C47       -12.8070   25.8130   -4.3130 c1      201 20U     -0.049000
     36 C48       -12.4110   24.5030   -4.5760 c1      201 20U     -0.164000
     37 C51       -13.9990   27.9010   -4.9970 c2      201 20U      0.347000
     38 N51       -14.7180   28.5500   -5.9840 n       201 20U     -0.435000
     39 O51       -13.7080   28.5230   -3.9640 o       201 20U     -0.370000
     40 F1        -11.4330   17.9810   -2.8510 f       201 20U     -0.091000
     41 H01       -14.9650   28.0620   -6.8330 hn      201 20U      0.219000
     42 H02       -10.5300   15.4970   -7.5820 hn      201 20U      0.260000
     43 H03       -14.0190   17.9970   -4.3120 ha      201 20U      0.133000
     44 H04       -14.9450   15.7590   -3.5950 ha      201 20U      0.154000
     45 H05       -12.1570   13.7720   -6.2780 ha      201 20U      0.159000
     46 H06       -13.7700   19.3340   -6.6390 h1      201 20U      0.066000
     47 H07       -12.6150   21.1650   -7.4390 hn      201 20U      0.183000
     48 H08       -10.0450   20.6030   -6.4210 h1      201 20U      0.158000
     49 H09       -12.0050   19.4730   -4.4410 hc      201 20U      0.122000
     50 H10       -13.2720   17.3740   -8.2790 hc      201 20U      0.088000
     51 H11       -15.1220   17.4290  -10.3590 hc      201 20U      0.075000
     52 H12       -15.8790   19.2430   -7.3130 hc      201 20U      0.065000
     53 H13       -14.6100   20.8870   -7.9750 hc      201 20U      0.060000
     54 H14        -6.9680   17.6860   -2.5090 ha      201 20U      0.153000
     55 H15        -6.6720   18.8270   -4.7190 ha      201 20U      0.148000
     56 H16        -8.6800   19.5570   -6.0320 ha      201 20U      0.171000
     57 H17       -12.8230   22.1820   -6.9490 hn      201 20U      0.226000
     58 H18       -14.0130   24.0530   -7.5530 ha      201 20U      0.129000
     59 H19       -14.7160   26.3780   -7.0920 ha      201 20U      0.135000
     60 H20       -12.4880   26.3040   -3.3930 ha      201 20U      0.162000
     61 H21       -11.7840   23.9580   -3.8700 ha      201 20U      0.180000
     62 H22       -14.9970   29.5120   -5.8560 hn      201 20U      0.230000
     63 H23       -12.4150   18.6640   -9.1780 hc      201 20U      0.122000
     64 H24       -13.8270   18.4940  -10.9570 hc      201 20U      0.081000
     65 H25       -15.3720   17.5590   -7.5900 hc      201 20U      0.078000
     66 H26       -15.3660   20.8750   -9.5870 hc      201 20U      0.078000
     67 H27       -13.5930   20.8640   -9.4350 hc      201 20U      0.088000
     68 H28       -15.5060   19.0800  -10.9020 hc      201 20U      0.076000
     69 H29       -16.5640   18.3190   -8.6720 hc      201 20U      0.078000
@<TRIPOS>BOND
     1    1    9 1   
     2    2   24 1   
     3    3    4 1   
     4    3   12 1   
     5    3   42 1   
     6    4    6 1   
     7    6   11 1   
     8    6   13 1   
     9    6   16 1   
    10    7   43 1   
    11    8   44 1   
    12    9   10 1   
    13   10   45 1   
    14   11   12 1   
    15   13   14 1   
    16   13   17 1   
    17   13   46 1   
    18   14   15 1   
    19   14   47 1   
    20   15   16 1   
    21   15   28 1   
    22   15   48 1   
    23   16   22 1   
    24   16   49 1   
    25   17   18 1   
    26   17   50 1   
    27   17   63 1   
    28   18   19 1   
    29   18   20 1   
    30   18   21 1   
    31   19   51 1   
    32   19   64 1   
    33   19   68 1   
    34   20   52 1   
    35   20   65 1   
    36   20   69 1   
    37   21   53 1   
    38   21   66 1   
    39   21   67 1   
    40   22   27 1   
    41   23   40 1   
    42   24   25 1   
    43   25   54 1   
    44   26   55 1   
    45   27   56 1   
    46   28   30 1   
    47   30   31 1   
    48   30   57 1   
    49   31   36 1   
    50   32   58 1   
    51   33   59 1   
    52   34   37 1   
    53   35   60 1   
    54   36   61 1   
    55   37   38 1   
    56   37   39 1   
    57   38   41 1   
    58   38   62 1   
@<TRIPOS>SUBSTRUCTURE
     1 20U         1 TEMP              0 ****  ****    0 ROOT
