@<TRIPOS>MOLECULE
nmq.pdb
59 62 1 0 0
SMALL
NO_CHARGES


@<TRIPOS>ATOM
      1 CL2         8.8971  -13.7227   56.5072 Cl        1 UNK    0.0000
      2 C1          7.4190  -13.4690   56.2100 C.ar      1 UNK    0.0000
      3 N1          3.0980  -11.4210   54.8720 N.am      1 UNK    0.0000
      4 O1          2.3120  -10.6300   52.9050 O.2       1 UNK    0.0000
      5 C2          6.5980  -13.2650   57.3210 C.ar      1 UNK    0.0000
      6 O2          2.8120  -14.0540   53.8460 O.3       1 UNK    0.0000
      7 C3          5.2620  -12.9850   57.1290 C.ar      1 UNK    0.0000
      8 O3          1.2730   -8.8430   55.4600 O.co2     1 UNK    0.0000
      9 C4          6.9520  -13.4120   54.8920 C.ar      1 UNK    0.0000
     10 O4          1.9270  -10.1050   57.1880 O.co2     1 UNK    0.0000
     11 C5          5.6040  -13.1270   54.7220 C.ar      1 UNK    0.0000
     12 C6          4.7540  -12.9110   55.8300 C.ar      1 UNK    0.0000
     13 C7          3.2900  -12.5750   55.7250 C.3       1 UNK    0.0000
     14 C8          3.3850  -10.0370   55.3250 C.3       1 UNK    0.0000
     15 C9          2.6320  -11.6020   53.5890 C.2       1 UNK    0.0000
     16 C10         2.4920  -13.0140   52.9690 C.3       1 UNK    0.0000
     17 C11         1.0710  -13.1040   52.3110 C.3       1 UNK    0.0000
     18 C12         0.6140  -14.5070   52.0270 C.ar      1 UNK    0.0000
     19 C13        -0.1700  -15.2150   52.9450 C.ar      1 UNK    0.0000
     20 C14        -0.5790  -16.5280   52.6600 C.ar      1 UNK    0.0000
     21 C15        -0.1900  -17.1180   51.4420 C.ar      1 UNK    0.0000
     22 C16         0.5960  -16.4040   50.5280 C.ar      1 UNK    0.0000
     23 C17         0.9940  -15.1030   50.8200 C.ar      1 UNK    0.0000
     24 C18         2.4410  -13.7720   55.1840 C.3       1 UNK    0.0000
     25 C19         2.5060  -14.9690   56.0850 C.ar      1 UNK    0.0000
     26 C20         1.8930  -14.9030   57.3460 C.ar      1 UNK    0.0000
     27 C21         1.9870  -15.9830   58.2480 C.ar      1 UNK    0.0000
     28 C22         2.7160  -17.1250   57.8350 C.ar      1 UNK    0.0000
     29 C23         3.3260  -17.2080   56.5860 C.ar      1 UNK    0.0000
     30 C24         3.2150  -16.1250   55.7130 C.ar      1 UNK    0.0000
     31 C25         4.5540   -9.7770   56.3380 C.3       1 UNK    0.0000
     32 C26         2.0880   -9.5840   55.9560 C.2       1 UNK    0.0000
     33 C27         5.7390   -8.8670   55.9160 C.3       1 UNK    0.0000
     34 C28         6.8540   -8.6990   56.9800 C.3       1 UNK    0.0000
     35 F1         -0.5500  -18.3770   51.1080 F         1 UNK    0.0000
     36 H01         7.1870   -9.6810   57.3170 H         1 UNK    0.0000
     37 H02         7.0090  -13.3260   58.3290 H         1 UNK    0.0000
     38 H03         4.6070  -12.8230   57.9850 H         1 UNK    0.0000
     39 H04         7.6130  -13.5830   54.0420 H         1 UNK    0.0000
     40 H05         5.1930  -13.0690   53.7140 H         1 UNK    0.0000
     41 H06         2.9440  -12.3520   56.7340 H         1 UNK    0.0000
     42 H07         3.7390   -9.4960   54.4470 H         1 UNK    0.0000
     43 H08         3.2420  -13.1550   52.1910 H         1 UNK    0.0000
     44 H09         1.0930  -12.5540   51.3700 H         1 UNK    0.0000
     45 H10        -0.4640  -14.7460   53.8840 H         1 UNK    0.0000
     46 H11        -1.1900  -17.0830   53.3720 H         1 UNK    0.0000
     47 H12         0.8960  -16.8680   49.5880 H         1 UNK    0.0000
     48 H13         1.6030  -14.5470   50.1070 H         1 UNK    0.0000
     49 H14         1.3900  -13.4840   55.1810 H         1 UNK    0.0000
     50 H15         1.3390  -14.0080   57.6310 H         1 UNK    0.0000
     51 H16         1.5150  -15.9400   59.2290 H         1 UNK    0.0000
     52 H17         3.8790  -18.1010   56.2960 H         1 UNK    0.0000
     53 H18         3.6840  -16.1760   54.7300 H         1 UNK    0.0000
     54 H21         6.4650   -8.1360   57.8280 H         1 UNK    0.0000
     55 H22         0.3660  -12.6830   53.0280 H         1 UNK    0.0000
     56 H23         4.0760   -9.2200   57.1440 H         1 UNK    0.0000
     57 H24         6.2070   -9.3570   55.0620 H         1 UNK    0.0000
     58 H25         7.6950   -8.1610   56.5420 H         1 UNK    0.0000
     59 CL1         2.8375  -18.3088   58.7948 Cl        1 UNK    0.0000
@<TRIPOS>BOND
     1    1    2 1
     2    2    5 ar
     3    2    9 ar
     4    3   13 1
     5    3   14 1
     6    3   15 am
     7    4   15 2
     8    5    7 ar
     9    5   37 1
    10    6   16 1
    11    6   24 1
    12    7   12 ar
    13    7   38 1
    14    8   32 2
    15    9   11 ar
    16    9   39 1
    17   10   32 2
    18   11   12 ar
    19   11   40 1
    20   12   13 1
    21   13   24 1
    22   13   41 1
    23   14   31 1
    24   14   32 1
    25   14   42 1
    26   15   16 1
    27   16   17 1
    28   16   43 1
    29   17   18 1
    30   17   44 1
    31   17   55 1
    32   18   19 ar
    33   18   23 ar
    34   19   20 ar
    35   19   45 1
    36   20   21 ar
    37   20   46 1
    38   21   22 ar
    39   21   35 1
    40   22   23 ar
    41   22   47 1
    42   23   48 1
    43   24   25 1
    44   24   49 1
    45   25   26 ar
    46   25   30 ar
    47   26   27 ar
    48   26   50 1
    49   27   28 ar
    50   27   51 1
    51   28   29 ar
    52   29   30 ar
    53   29   52 1
    54   30   53 1
    55   31   33 1
    56   31   56 1
    57   33   34 1
    58   33   57 1
    59   34   36 1
    60   34   54 1
    61   34   58 1
    62   59   28 1
@<TRIPOS>SUBSTRUCTURE
     1 UNK     1 RESIDUE           4 A     UNK     0 ROOT
