@<TRIPOS>MOLECULE
n18.pdb
   34    36     1     0     0
SMALL
bcc
@<TRIPOS>ATOM
      1 Cl4       -10.4300  -15.7610   -0.4980 cl        1 UNK     -0.097371 
      2 Cl5       -14.9460  -12.2010   -3.3550 cl        1 UNK     -0.095371 
      3 N1        -13.7500   -9.5080    2.6330 nh        1 UNK     -0.396071 
      4 C2        -13.4820  -10.2540    3.7620 c2        1 UNK      0.454729 
      5 N3        -12.3850  -10.9090    3.7230 n2        1 UNK     -0.609871 
      6 C4        -11.7030  -10.6570    2.4540 c3        1 UNK      0.150829 
      7 C5        -12.6710   -9.7260    1.6670 c3        1 UNK      0.025329 
      8 C21       -14.4600  -10.2400    4.9030 c3        1 UNK     -0.126371 
      9 C41       -11.3800  -11.9480    1.7480 ca        1 UNK     -0.061271 
     10 C42       -10.1830  -12.0660    1.0400 ca        1 UNK     -0.113971 
     11 C43        -9.8730  -13.2490    0.3820 ca        1 UNK     -0.125971 
     12 C44       -10.7720  -14.3140    0.4220 ca        1 UNK      0.021429 
     13 C45       -11.9520  -14.2220    1.1630 ca        1 UNK     -0.126971 
     14 C46       -12.2560  -13.0350    1.8230 ca        1 UNK     -0.091971 
     15 C51       -13.2230  -10.3460    0.4060 ca        1 UNK     -0.074271 
     16 C52       -12.5080  -10.2730   -0.7950 ca        1 UNK     -0.117971 
     17 C53       -13.0440  -10.8190   -1.9610 ca        1 UNK     -0.125971 
     18 C54       -14.2910  -11.4520   -1.9160 ca        1 UNK      0.022429 
     19 C55       -15.0140  -11.5130   -0.7240 ca        1 UNK     -0.127971 
     20 C56       -14.4750  -10.9650    0.4350 ca        1 UNK     -0.086971 
     21 H01       -15.0320  -11.0190    1.3700 ha        1 UNK      0.149029 
     22 H02       -13.8000   -8.5290    2.8750 hn        1 UNK      0.249729 
     23 H05       -10.7310  -10.1770    2.5720 h1        1 UNK      0.071729 
     24 H06       -12.1670   -8.8240    1.3210 h1        1 UNK      0.043729 
     25 H07       -14.6180   -9.2140    5.2340 hc        1 UNK      0.050729 
     26 H08        -9.4890  -11.2260    1.0030 ha        1 UNK      0.133029 
     27 H09        -8.9330  -13.3440   -0.1620 ha        1 UNK      0.146029 
     28 H10       -12.6300  -15.0730    1.2240 ha        1 UNK      0.147029 
     29 H11       -13.1780  -12.9530    2.3990 ha        1 UNK      0.144029 
     30 H12       -11.5320   -9.7890   -0.8190 ha        1 UNK      0.133029 
     31 H13       -12.4950  -10.7530   -2.9010 ha        1 UNK      0.147029 
     32 H14       -15.9950  -11.9870   -0.7010 ha        1 UNK      0.148029 
     33 H15       -14.0650  -10.8320    5.7290 hc        1 UNK      0.074729 
     34 H16       -15.4080  -10.6650    4.5730 hc        1 UNK      0.065729 
@<TRIPOS>BOND
     1    1   12 1   
     2    2   18 1   
     3    3    4 2   
     4    3    7 1   
     5    3   22 1   
     6    4    5 2   
     7    4    8 1   
     8    5    6 1   
     9    6    7 1   
    10    6    9 1   
    11    6   23 1   
    12    7   15 1   
    13    7   24 1   
    14    8   25 1   
    15    8   33 1   
    16    8   34 1   
    17    9   10 ar  
    18    9   14 ar  
    19   10   11 ar  
    20   10   26 1   
    21   11   12 ar  
    22   11   27 1   
    23   12   13 ar  
    24   13   14 ar  
    25   13   28 1   
    26   14   29 1   
    27   15   16 ar  
    28   15   20 ar  
    29   16   17 ar  
    30   16   30 1   
    31   17   18 ar  
    32   17   31 1   
    33   18   19 ar  
    34   19   20 ar  
    35   19   32 1   
    36   20   21 1   
@<TRIPOS>SUBSTRUCTURE
     1 UNK         1 TEMP              0 ****  ****    0 ROOT
