@<TRIPOS>MOLECULE
n18.pdb
34 36 1 0 0
SMALL
NO_CHARGES


@<TRIPOS>ATOM
      1 Cl4       -10.4300  -15.7610   -0.4980 C.3       1 UNK    0.0000
      2 Cl5       -14.9460  -12.2010   -3.3550 C.3       1 UNK    0.0000
      3 N1        -13.7500   -9.5080    2.6330 N.2       1 UNK    0.0000
      4 C2        -13.4820  -10.2540    3.7620 C.2       1 UNK    0.0000
      5 N3        -12.3850  -10.9090    3.7230 N.pl3     1 UNK    0.0000
      6 C4        -11.7030  -10.6570    2.4540 C.3       1 UNK    0.0000
      7 C5        -12.6710   -9.7260    1.6670 C.3       1 UNK    0.0000
      8 C21       -14.4600  -10.2400    4.9030 C.3       1 UNK    0.0000
      9 C41       -11.3800  -11.9480    1.7480 C.ar      1 UNK    0.0000
     10 C42       -10.1830  -12.0660    1.0400 C.ar      1 UNK    0.0000
     11 C43        -9.8730  -13.2490    0.3820 C.ar      1 UNK    0.0000
     12 C44       -10.7720  -14.3140    0.4220 C.ar      1 UNK    0.0000
     13 C45       -11.9520  -14.2220    1.1630 C.ar      1 UNK    0.0000
     14 C46       -12.2560  -13.0350    1.8230 C.ar      1 UNK    0.0000
     15 C51       -13.2230  -10.3460    0.4060 C.ar      1 UNK    0.0000
     16 C52       -12.5080  -10.2730   -0.7950 C.ar      1 UNK    0.0000
     17 C53       -13.0440  -10.8190   -1.9610 C.ar      1 UNK    0.0000
     18 C54       -14.2910  -11.4520   -1.9160 C.ar      1 UNK    0.0000
     19 C55       -15.0140  -11.5130   -0.7240 C.ar      1 UNK    0.0000
     20 C56       -14.4750  -10.9650    0.4350 C.ar      1 UNK    0.0000
     21 H01       -15.0320  -11.0190    1.3700 H         1 UNK    0.0000
     22 H02       -13.8000   -8.5290    2.8750 H         1 UNK    0.0000
     23 H05       -10.7310  -10.1770    2.5720 H         1 UNK    0.0000
     24 H06       -12.1670   -8.8240    1.3210 H         1 UNK    0.0000
     25 H07       -14.6180   -9.2140    5.2340 H         1 UNK    0.0000
     26 H08        -9.4890  -11.2260    1.0030 H         1 UNK    0.0000
     27 H09        -8.9330  -13.3440   -0.1620 H         1 UNK    0.0000
     28 H10       -12.6300  -15.0730    1.2240 H         1 UNK    0.0000
     29 H11       -13.1780  -12.9530    2.3990 H         1 UNK    0.0000
     30 H12       -11.5320   -9.7890   -0.8190 H         1 UNK    0.0000
     31 H13       -12.4950  -10.7530   -2.9010 H         1 UNK    0.0000
     32 H14       -15.9950  -11.9870   -0.7010 H         1 UNK    0.0000
     33 H15       -14.0650  -10.8320    5.7290 H         1 UNK    0.0000
     34 H16       -15.4080  -10.6650    4.5730 H         1 UNK    0.0000
@<TRIPOS>BOND
     1    1   12 1
     2    2   18 1
     3    3    4 2
     4    3    7 1
     5    3   22 1
     6    4    5 2
     7    4    8 1
     8    5    6 1
     9    6    7 1
    10    6    9 1
    11    6   23 1
    12    7   15 1
    13    7   24 1
    14    8   25 1
    15    8   33 1
    16    8   34 1
    17    9   10 ar
    18    9   14 ar
    19   10   11 ar
    20   10   26 1
    21   11   12 ar
    22   11   27 1
    23   12   13 ar
    24   13   14 ar
    25   13   28 1
    26   14   29 1
    27   15   16 ar
    28   15   20 ar
    29   16   17 ar
    30   16   30 1
    31   17   18 ar
    32   17   31 1
    33   18   19 ar
    34   19   20 ar
    35   19   32 1
    36   20   21 1
@<TRIPOS>SUBSTRUCTURE
     1 UNK     1 RESIDUE           4 A     UNK     0 ROOT
