@<TRIPOS>MOLECULE
n0q.pdb
   50    53     1     0     0
SMALL
bcc


@<TRIPOS>ATOM
      1 Cl1        10.4740   15.3250   33.3190 cl        1 20Q     -0.094400
      2 Cl6        14.8350   12.0590   30.2780 cl        1 20Q     -0.084400
      3 N1         11.7850    9.4000   33.4340 n         1 20Q     -0.468100
      4 C2         11.7150    9.2850   34.8110 c         1 20Q      0.699500
      5 O2         10.8480    8.6190   35.3930 o         1 20Q     -0.613500
      6 C3         12.8530   10.0930   35.4400 c3        1 20Q     -0.041700
      7 C4         14.7540   11.2410   34.1360 ca        1 20Q     -0.068000
      8 C5         15.1970   11.6650   32.8860 ca        1 20Q     -0.154000
      9 C6         14.4080   11.3690   31.7200 ca        1 20Q      0.054400
     10 C7         13.2550   10.5380   31.8010 ca        1 20Q     -0.161000
     11 C8         13.5740   10.5250   34.2060 ca        1 20Q     -0.135300
     12 C9         12.9010   10.1710   33.0750 ca        1 20Q      0.067600
     13 C10        12.3350   11.3450   36.2040 c3        1 20Q     -0.023100
     14 C11        11.2080   12.0430   35.4630 ca        1 20Q     -0.080300
     15 C12        11.4200   13.2570   34.7980 ca        1 20Q     -0.114000
     16 C13        10.3080   13.8660   34.1220 ca        1 20Q      0.018400
     17 C14         9.0410   13.2460   34.1240 ca        1 20Q     -0.121000
     18 C15         8.8720   12.0570   34.7940 ca        1 20Q     -0.119000
     19 C16         9.9380   11.4520   35.4620 ca        1 20Q     -0.128000
     20 C31        13.7480    9.2100   36.3320 c3        1 20Q     -0.077700
     21 C32        12.9170    8.2860   37.2260 c3        1 20Q      0.075000
     22 C33        13.8650    6.1530   37.9650 c         1 20Q      0.652100
     23 N33        13.8110    7.4840   38.0820 n         1 20Q     -0.456800
     24 O33        14.7410    5.5120   38.5590 o         1 20Q     -0.605100
     25 C34        14.8060    8.2080   38.8910 c3        1 20Q      0.074000
     26 C35        15.6240    9.1570   38.0020 c3        1 20Q     -0.104400
     27 C36        14.6950   10.0620   37.1830 c3        1 20Q     -0.077400
     28 C37        12.8200    5.5170   37.0910 c3        1 20Q     -0.171100
     29 H01        12.5100    4.5670   37.5270 hc        1 20Q      0.074700
     30 H02        11.1300    8.9900   32.7840 hn        1 20Q      0.342500
     31 H03        15.3240   11.4680   35.0370 ha        1 20Q      0.143000
     32 H04        16.1330   12.2160   32.7920 ha        1 20Q      0.153000
     33 H05        12.6970   10.2180   30.9210 ha        1 20Q      0.157000
     34 H06        13.1600   12.0460   36.3310 hc        1 20Q      0.062700
     35 H07        12.4030   13.7280   34.7930 ha        1 20Q      0.144000
     36 H08         8.2030   13.7050   33.5990 ha        1 20Q      0.149000
     37 H09         7.8920   11.5800   34.8040 ha        1 20Q      0.140000
     38 H10         9.7810   10.5100   35.9880 ha        1 20Q      0.150000
     39 H11        14.3470    8.5870   35.6670 hc        1 20Q      0.066700
     40 H12        12.3180    7.6210   36.6030 h1        1 20Q      0.084700
     41 H13        15.4760    7.4910   39.3650 h1        1 20Q      0.089700
     42 H14        16.2430    8.5700   37.3240 hc        1 20Q      0.053700
     43 H15        14.1110   10.6860   37.8590 hc        1 20Q      0.040700
     44 H16        13.2330    5.3440   36.0970 hc        1 20Q      0.064700
     45 H17        11.9470   11.0130   37.1670 hc        1 20Q      0.073700
     46 H18        12.2610    8.8880   37.8550 h1        1 20Q      0.050700
     47 H19        14.2880    8.7920   39.6520 h1        1 20Q      0.043700
     48 H20        16.2520    9.7810   38.6380 hc        1 20Q      0.053700
     49 H21        15.2970   10.6910   36.5270 hc        1 20Q      0.051700
     50 H22        11.9580    6.1800   37.0150 hc        1 20Q      0.066700
@<TRIPOS>BOND
     1    1   16 1   
     2    2    9 1   
     3    3    4 1   
     4    3   12 1   
     5    3   30 1   
     6    4    5 2   
     7    4    6 1   
     8    6   11 1   
     9    6   13 1   
    10    6   20 1   
    11    7    8 ar  
    12    7   11 ar  
    13    7   31 1   
    14    8    9 ar  
    15    8   32 1   
    16    9   10 ar  
    17   10   12 ar  
    18   10   33 1   
    19   11   12 ar  
    20   13   14 1   
    21   13   34 1   
    22   13   45 1   
    23   14   15 ar  
    24   14   19 ar  
    25   15   16 ar  
    26   15   35 1   
    27   16   17 ar  
    28   17   18 ar  
    29   17   36 1   
    30   18   19 ar  
    31   18   37 1   
    32   19   38 1   
    33   20   21 1   
    34   20   27 1   
    35   20   39 1   
    36   21   23 1   
    37   21   40 1   
    38   21   46 1   
    39   22   23 1   
    40   22   24 2   
    41   22   28 1   
    42   23   25 1   
    43   25   26 1   
    44   25   41 1   
    45   25   47 1   
    46   26   27 1   
    47   26   42 1   
    48   26   48 1   
    49   27   43 1   
    50   27   49 1   
    51   28   29 1   
    52   28   44 1   
    53   28   50 1   
@<TRIPOS>SUBSTRUCTURE
     1 20Q         1 TEMP              0 ****  ****    0 ROOT
