@<TRIPOS>MOLECULE
n0u.pdb
69 73 1 0 0
SMALL
NO_CHARGES


@<TRIPOS>ATOM
      1 CL1       -14.1980   13.0930   -4.3660 Cl        1 20U    0.0000
      2 CL2        -9.3710   16.9260   -1.1060 Cl        1 20U    0.0000
      3 N1        -11.0550   16.1890   -7.0660 N.am      1 20U    0.0000
      4 C2        -10.8610   17.5860   -7.1290 C.2       1 20U    0.0000
      5 O2         -9.9720   18.1210   -7.7990 O.2       1 20U    0.0000
      6 C3        -11.9150   18.2710   -6.2580 C.3       1 20U    0.0000
      7 C4        -13.6240   17.0680   -4.7240 C.ar      1 20U    0.0000
      8 C5        -14.1370   15.8140   -4.3250 C.ar      1 20U    0.0000
      9 C6        -13.5920   14.6220   -4.8820 C.ar      1 20U    0.0000
     10 C7        -12.5700   14.6740   -5.8260 C.ar      1 20U    0.0000
     11 C8        -12.6070   17.0740   -5.6520 C.ar      1 20U    0.0000
     12 C9        -12.1140   15.9180   -6.1530 C.ar      1 20U    0.0000
     13 C11       -12.8130   19.1320   -7.1200 C.3       1 20U    0.0000
     14 N12       -12.0070   20.3630   -7.3510 N.4       1 20U    0.0000
     15 C13       -11.0980   20.5270   -6.1510 C.3       1 20U    0.0000
     16 C14       -11.3300   19.2880   -5.2770 C.3       1 20U    0.0000
     17 C21       -13.1900   18.4480   -8.4430 C.3       1 20U    0.0000
     18 C22       -14.5360   18.9810   -8.9790 C.3       1 20U    0.0000
     19 C23       -14.7640   18.4580  -10.4020 C.3       1 20U    0.0000
     20 C24       -15.6690   18.4900   -8.0730 C.3       1 20U    0.0000
     21 C25       -14.5260   20.5120   -8.9950 C.3       1 20U    0.0000
     22 C31       -10.0830   18.8260   -4.5560 C.ar      1 20U    0.0000
     23 C32       -10.1990   18.1890   -3.3500 C.ar      1 20U    0.0000
     24 C33        -9.1220   17.7630   -2.6160 C.ar      1 20U    0.0000
     25 C34        -7.8370   17.9980   -3.0890 C.ar      1 20U    0.0000
     26 C35        -7.6740   18.6450   -4.3290 C.ar      1 20U    0.0000
     27 C36        -8.8040   19.0600   -5.0700 C.ar      1 20U    0.0000
     28 C41       -11.4600   21.7870   -5.4380 C.2       1 20U    0.0000
     29 O41       -10.9930   22.1210   -4.3480 O.2       1 20U    0.0000
     30 N42       -12.4050   22.5830   -6.1210 N.am      1 20U    0.0000
     31 C43       -12.8330   23.9080   -5.7570 C.ar      1 20U    0.0000
     32 C44       -13.6690   24.5610   -6.6520 C.ar      1 20U    0.0000
     33 C45       -14.0610   25.8580   -6.3930 C.ar      1 20U    0.0000
     34 C46       -13.6210   26.5060   -5.2370 C.ar      1 20U    0.0000
     35 C47       -12.8070   25.8130   -4.3130 C.ar      1 20U    0.0000
     36 C48       -12.4110   24.5030   -4.5760 C.ar      1 20U    0.0000
     37 C51       -13.9990   27.9010   -4.9970 C.2       1 20U    0.0000
     38 N51       -14.7180   28.5500   -5.9840 N.am      1 20U    0.0000
     39 O51       -13.7080   28.5230   -3.9640 O.2       1 20U    0.0000
     40 F1        -11.4330   17.9810   -2.8510 F         1 20U    0.0000
     41 H01       -14.9650   28.0620   -6.8330 H         1 20U    0.0000
     42 H02       -10.5300   15.4970   -7.5820 H         1 20U    0.0000
     43 H03       -14.0190   17.9970   -4.3120 H         1 20U    0.0000
     44 H04       -14.9450   15.7590   -3.5950 H         1 20U    0.0000
     45 H05       -12.1570   13.7720   -6.2780 H         1 20U    0.0000
     46 H06       -13.7700   19.3340   -6.6390 H         1 20U    0.0000
     47 H07       -12.6150   21.1650   -7.4390 H         1 20U    0.0000
     48 H08       -10.0450   20.6030   -6.4210 H         1 20U    0.0000
     49 H09       -12.0050   19.4730   -4.4410 H         1 20U    0.0000
     50 H10       -13.2720   17.3740   -8.2790 H         1 20U    0.0000
     51 H11       -15.1220   17.4290  -10.3590 H         1 20U    0.0000
     52 H12       -15.8790   19.2430   -7.3130 H         1 20U    0.0000
     53 H13       -14.6100   20.8870   -7.9750 H         1 20U    0.0000
     54 H14        -6.9680   17.6860   -2.5090 H         1 20U    0.0000
     55 H15        -6.6720   18.8270   -4.7190 H         1 20U    0.0000
     56 H16        -8.6800   19.5570   -6.0320 H         1 20U    0.0000
     57 H17       -12.8230   22.1820   -6.9490 H         1 20U    0.0000
     58 H18       -14.0130   24.0530   -7.5530 H         1 20U    0.0000
     59 H19       -14.7160   26.3780   -7.0920 H         1 20U    0.0000
     60 H20       -12.4880   26.3040   -3.3930 H         1 20U    0.0000
     61 H21       -11.7840   23.9580   -3.8700 H         1 20U    0.0000
     62 H22       -14.9970   29.5120   -5.8560 H         1 20U    0.0000
     63 H23       -12.4150   18.6640   -9.1780 H         1 20U    0.0000
     64 H24       -13.8270   18.4940  -10.9570 H         1 20U    0.0000
     65 H25       -15.3720   17.5590   -7.5900 H         1 20U    0.0000
     66 H26       -15.3660   20.8750   -9.5870 H         1 20U    0.0000
     67 H27       -13.5930   20.8640   -9.4350 H         1 20U    0.0000
     68 H28       -15.5060   19.0800  -10.9020 H         1 20U    0.0000
     69 H29       -16.5640   18.3190   -8.6720 H         1 20U    0.0000
@<TRIPOS>BOND
     1    1    9 1
     2    2   24 1
     3    3    4 am
     4    3   12 1
     5    3   42 1
     6    4    5 2
     7    4    6 1
     8    6   11 1
     9    6   13 1
    10    6   16 1
    11    7    8 ar
    12    7   11 ar
    13    7   43 1
    14    8    9 ar
    15    8   44 1
    16    9   10 ar
    17   10   12 ar
    18   10   45 1
    19   11   12 ar
    20   13   14 1
    21   13   17 1
    22   13   46 1
    23   14   15 1
    24   14   47 1
    25   15   16 1
    26   15   28 1
    27   15   48 1
    28   16   22 1
    29   16   49 1
    30   17   18 1
    31   17   50 1
    32   17   63 1
    33   18   19 1
    34   18   20 1
    35   18   21 1
    36   19   51 1
    37   19   64 1
    38   19   68 1
    39   20   52 1
    40   20   65 1
    41   20   69 1
    42   21   53 1
    43   21   66 1
    44   21   67 1
    45   22   23 ar
    46   22   27 ar
    47   23   24 ar
    48   23   40 1
    49   24   25 ar
    50   25   26 ar
    51   25   54 1
    52   26   27 ar
    53   26   55 1
    54   27   56 1
    55   28   29 2
    56   28   30 am
    57   30   31 1
    58   30   57 1
    59   31   32 ar
    60   31   36 ar
    61   32   33 ar
    62   32   58 1
    63   33   34 ar
    64   33   59 1
    65   34   35 ar
    66   34   37 1
    67   35   36 ar
    68   35   60 1
    69   36   61 1
    70   37   38 am
    71   37   39 2
    72   38   41 1
    73   38   62 1
@<TRIPOS>SUBSTRUCTURE
     1 20U     1 RESIDUE           4 A     20U     0 ROOT
