@<TRIPOS>MOLECULE
n31.pdb
66 69 1 0 0
SMALL
NO_CHARGES


@<TRIPOS>ATOM
      1 Cl4        -3.3300   -2.9320   -0.8420 C.3       1 UNK    0.0000
      2 Cl5        -8.8080    0.8030   -0.3710 C.3       1 UNK    0.0000
      3 N1         -3.6590    5.0320   -0.0450 N.2       1 UNK    0.0000
      4 C2         -2.9390    4.6290    1.0710 C.2       1 UNK    0.0000
      5 N3         -2.3950    3.4760    0.9400 N.pl3     1 UNK    0.0000
      6 C4         -2.4760    3.0490   -0.4440 C.3       1 UNK    0.0000
      7 C5         -3.6580    3.9110   -0.9980 C.3       1 UNK    0.0000
      8 C21        -2.8130    5.4880    2.2450 C.ar      1 UNK    0.0000
      9 C22        -1.6540    5.4150    3.0170 C.ar      1 UNK    0.0000
     10 C23        -1.4880    6.2330    4.1250 C.ar      1 UNK    0.0000
     11 C24        -2.4820    7.1360    4.4860 C.ar      1 UNK    0.0000
     12 C25        -3.6660    7.2240    3.7220 C.ar      1 UNK    0.0000
     13 C26        -3.8120    6.3860    2.6090 C.ar      1 UNK    0.0000
     14 O27        -4.9660    6.4250    1.8320 O.3       1 UNK    0.0000
     15 C28        -5.9840    7.2990    2.2980 C.3       1 UNK    0.0000
     16 C29        -7.1880    7.2400    1.3440 C.3       1 UNK    0.0000
     17 C30        -2.2720    7.9980    5.7110 C.3       1 UNK    0.0000
     18 C31        -3.4670    8.9340    5.9050 C.3       1 UNK    0.0000
     19 C32        -2.1300    7.0920    6.9410 C.3       1 UNK    0.0000
     20 C33        -0.9920    8.8310    5.5510 C.3       1 UNK    0.0000
     21 C41        -2.6900    1.5520   -0.5410 C.ar      1 UNK    0.0000
     22 C42        -2.0930    0.8250   -1.5810 C.ar      1 UNK    0.0000
     23 C43        -2.2740   -0.5550   -1.6660 C.ar      1 UNK    0.0000
     24 C44        -3.0610   -1.2050   -0.7160 C.ar      1 UNK    0.0000
     25 C45        -3.6470   -0.4900    0.3280 C.ar      1 UNK    0.0000
     26 C46        -3.4610    0.8860    0.4140 C.ar      1 UNK    0.0000
     27 C47        -1.1680    3.4380   -1.1490 C.3       1 UNK    0.0000
     28 C51        -4.9880    3.1850   -0.8960 C.ar      1 UNK    0.0000
     29 C52        -5.3940    2.2870   -1.8890 C.ar      1 UNK    0.0000
     30 C53        -6.5820    1.5720   -1.7410 C.ar      1 UNK    0.0000
     31 C54        -7.3620    1.7580   -0.5970 C.ar      1 UNK    0.0000
     32 C55        -6.9910    2.6890    0.3690 C.ar      1 UNK    0.0000
     33 C56        -5.8050    3.4010    0.2150 C.ar      1 UNK    0.0000
     34 C57        -3.3860    4.3980   -2.4300 C.3       1 UNK    0.0000
     35 H01        -3.5910    5.4670   -2.4960 H         1 UNK    0.0000
     36 H02        -3.2240    5.8420   -0.4630 H         1 UNK    0.0000
     37 H05        -0.8700    4.7080    2.7470 H         1 UNK    0.0000
     38 H06        -0.5740    6.1680    4.7150 H         1 UNK    0.0000
     39 H07        -4.4510    7.9300    3.9930 H         1 UNK    0.0000
     40 H08        -5.5990    8.3180    2.3360 H         1 UNK    0.0000
     41 H09        -7.5380    6.2110    1.2630 H         1 UNK    0.0000
     42 H10        -3.7370    9.3830    4.9490 H         1 UNK    0.0000
     43 H11        -1.6970    6.1380    6.6420 H         1 UNK    0.0000
     44 H12        -0.7010    9.2410    6.5180 H         1 UNK    0.0000
     45 H13        -1.4860    1.3400   -2.3250 H         1 UNK    0.0000
     46 H14        -1.8040   -1.1220   -2.4690 H         1 UNK    0.0000
     47 H15        -4.2490   -1.0080    1.0750 H         1 UNK    0.0000
     48 H16        -3.9190    1.4460    1.2290 H         1 UNK    0.0000
     49 H17        -0.9130    4.4680   -0.9010 H         1 UNK    0.0000
     50 H18        -4.7810    2.1460   -2.7790 H         1 UNK    0.0000
     51 H19        -6.9000    0.8720   -2.5130 H         1 UNK    0.0000
     52 H20        -7.6250    2.8590    1.2400 H         1 UNK    0.0000
     53 H21        -5.5120    4.1330    0.9680 H         1 UNK    0.0000
     54 H22        -4.0300    3.8600   -3.1260 H         1 UNK    0.0000
     55 H23        -6.2970    6.9920    3.2960 H         1 UNK    0.0000
     56 H24        -6.8910    7.6020    0.3600 H         1 UNK    0.0000
     57 H25        -3.2030    9.7190    6.6140 H         1 UNK    0.0000
     58 H26        -3.1120    6.9230    7.3840 H         1 UNK    0.0000
     59 H27        -1.1730    9.6460    4.8500 H         1 UNK    0.0000
     60 H28        -1.2940    3.3440   -2.2280 H         1 UNK    0.0000
     61 H29        -2.3420    4.2120   -2.6840 H         1 UNK    0.0000
     62 H30        -7.9910    7.8660    1.7340 H         1 UNK    0.0000
     63 H31        -4.3140    8.3660    6.2910 H         1 UNK    0.0000
     64 H32        -1.4800    7.5720    7.6720 H         1 UNK    0.0000
     65 H33        -0.1910    8.1970    5.1710 H         1 UNK    0.0000
     66 H34        -0.3670    2.7760   -0.8190 H         1 UNK    0.0000
@<TRIPOS>BOND
     1    1   24 1
     2    2   31 1
     3    3    4 2
     4    3    7 1
     5    3   36 1
     6    4    5 2
     7    4    8 1
     8    5    6 1
     9    6    7 1
    10    6   21 1
    11    6   27 1
    12    7   28 1
    13    7   34 1
    14    8    9 ar
    15    8   13 ar
    16    9   10 ar
    17    9   37 1
    18   10   11 ar
    19   10   38 1
    20   11   12 ar
    21   11   17 1
    22   12   13 ar
    23   12   39 1
    24   13   14 1
    25   14   15 1
    26   15   16 1
    27   15   40 1
    28   15   55 1
    29   16   41 1
    30   16   56 1
    31   16   62 1
    32   17   18 1
    33   17   19 1
    34   17   20 1
    35   18   42 1
    36   18   57 1
    37   18   63 1
    38   19   43 1
    39   19   58 1
    40   19   64 1
    41   20   44 1
    42   20   59 1
    43   20   65 1
    44   21   22 ar
    45   21   26 ar
    46   22   23 ar
    47   22   45 1
    48   23   24 ar
    49   23   46 1
    50   24   25 ar
    51   25   26 ar
    52   25   47 1
    53   26   48 1
    54   27   49 1
    55   27   60 1
    56   27   66 1
    57   28   29 ar
    58   28   33 ar
    59   29   30 ar
    60   29   50 1
    61   30   31 ar
    62   30   51 1
    63   31   32 ar
    64   32   33 ar
    65   32   52 1
    66   33   53 1
    67   34   35 1
    68   34   54 1
    69   34   61 1
@<TRIPOS>SUBSTRUCTURE
     1 UNK     1 RESIDUE           4 A     UNK     0 ROOT
